LAMMPS (3 Mar 2020)

# ---------- 1. Initialize simulation ----------
units metal
atom_style atomic
dimension 3
boundary p p p
read_data /home/modeler/RemLabs/Project/eval_timestep_nve/n3_T1800_timestep5.644189e-04_steps26577/20201205-224342/lammps.data
  orthogonal box = (0 0 0) to (17.469 17.469 17.469)
  reading atoms ...
  217 atoms

pair_style meam/c
pair_coeff * * library.meam Li Si LiSi.meam Li Si
Reading potential file library.meam with DATE: 2012-06-29
Reading potential file LiSi.meam with DATE: 2020-11-07

group Li type 1
1 atoms in group Li

velocity all create 1800 3320 dist gaussian

# ---------- 2. Describe computed properties----------
compute msdli Li msd
thermo_style custom step pe ke etotal temp press density c_msdli[4]
thermo 100

# ---------- 3. Specify ensemble  ----------
#fix 1 all npt temp 1800 1800 0.028220947292117233 tchain 2 iso 1.0 1.0 1.0 pchain 2
# fix 1 all nvt temp 1800 1800 0.028220947292117233
 fix 1 all nve

# ---------- 4. Run -------------
timestep 0.0005644189458423447
run 26577
  update every 1 steps, delay 10 steps, check yes
Step PotEng KinEng TotEng Temp Press Density c_msdli[4]
0   -951.04357    50.256344   -900.78722         1800   -114161.75    1.8918427            0
Averages over the last 134 of 267 rows, steps 13300 to 26577:
PotEng KinEng TotEng Temp Press Density c_msdli[4]
-926.691 25.9122 -900.779 928.082 -93897.1 1.89184 0.083692
Loop time of 14.0444 on 1 procs for 26577 steps with 217 atoms
