LAMMPS (3 Mar 2020)

    # ---------- Initialize simulation ---------------------
    units metal
    atom_style atomic
    dimension  3
    boundary   p p p
    read_data /home/modeler/RemLabs/Lab4/ProblemEC1_v4_size_2/temp_1240/lammps.data
  orthogonal box = (0 0 0) to (8.18 8.18 8.18)
  reading atoms ...
  32 atoms

    pair_style eam
    pair_coeff * * /usr/share/lammps-stable/potentials/Ag_u3.eam
Reading potential file /usr/share/lammps-stable/potentials/Ag_u3.eam with DATE: 2007-06-11

    velocity  all create 1240 87287 dist gaussian

    # ---------- Describe computed properties------------------
    compute msdall all msd
    thermo_style custom step pe ke etotal temp press density c_msdall[4]
    thermo 100

    # ---------- Specify ensemble  ---------------------
    #fix  1 all nve
    #fix  1 all nvt temp 1240 1240 0.25
    fix 1 all npt temp 1240 1240 0.25 tchain 2 iso 1.0 1.0 1.0 pchain 2

    # --------- Compute RDF ---------------
    compute rdfall all rdf 100 1 1
    fix 2 all ave/time 1 125000 125000 c_rdfall[*] file /home/modeler/RemLabs/Lab4/ProblemEC1_v4_size_2/temp_1240/lammps.rdf mode vector

    # --------- Run -------------
    timestep 0.005
    run 500000
  update every 1 steps, delay 10 steps, check yes
Step PotEng KinEng TotEng Temp Press Density c_msdall[4]
0        -91.2      4.96876    -86.23124         1240    9696.2678    10.472245            0
Averages over the last 2501 of 5001 rows, steps 250000 to 500000:
PotEng KinEng TotEng Temp Press Density c_msdall[4]
-85.0624 4.94548 -80.1169 1234.19 388.289 9.58401 1.16814
Loop time of 44.1029 on 1 procs for 500000 steps with 32 atoms
