LAMMPS (3 Mar 2020)

# ---------- 1. Initialize simulation ----------
units metal
atom_style atomic
dimension 3
boundary p p p
read_data /home/modeler/RemLabs/Project/arrhenius_4_test/T1400.0/n3_T1400.0_timestep3.000000e-03_eqsteps3200_time15_rseed3320/20201205-103332/lammps.data
  orthogonal box = (0 0 0) to (17.469 17.469 17.469)
  reading atoms ...
  217 atoms

pair_style meam/c
pair_coeff * * library.meam Li Si LiSi.meam Li Si
Reading potential file library.meam with DATE: 2012-06-29
Reading potential file LiSi.meam with DATE: 2020-11-07

group Li type 1
1 atoms in group Li
group Si type 2
216 atoms in group Si

velocity all create 1400.0 3320 dist gaussian

# ---------- 2. Specify equilibration ensemble  ----------
fix 1 all npt temp 1400.0 1400.0 0.15 tchain 2 iso 1.0 1.0 1.0 pchain 2
# fix 1 all nvt temp 1400.0 1400.0 0.15

# ---------- 3. Run equilibration -------------
timestep 0.003
run 3200
  update every 1 steps, delay 10 steps, check yes
Step Temp E_pair E_mol TotEng Press Volume
0         1400   -951.04357            0    -911.9553   -116399.41    5330.9442
Loop time of 2.31774 on 1 procs for 3200 steps with 217 atoms

# ---------- 4. Describe computed properties----------
compute msdli Li msd
compute msdsi Si msd
thermo_style custom step pe ke etotal temp press density c_msdli[4] c_msdsi[4]
thermo 100

# ---------- 3. Run production -------------
timestep 0.003
run 5000
Step PotEng KinEng TotEng Temp Press Density c_msdli[4] c_msdsi[4]
3200   -954.73951    41.302147   -913.43736    1479.2931    8188.6208    2.2134013            0 1.0898267e-31
Averages over the last 26 of 51 rows, steps 5700 to 8200:
PotEng KinEng TotEng Temp Press Density c_msdli[4] c_msdsi[4]
-954.445 38.7885 -915.656 1389.26 1063.43 2.19928 0.0695694 0.0992601
Loop time of 3.58635 on 1 procs for 5000 steps with 217 atoms
