LAMMPS (3 Mar 2020)

# ---------- 1. Initialize simulation ----------
units metal
atom_style atomic
dimension 3
boundary p p p
read_data /home/modeler/RemLabs/Project/eval_timestep/n3_T1800_timestep2.416465e-03_steps6208/20201204-074409/lammps.data
  orthogonal box = (0 0 0) to (17.469 17.469 17.469)
  reading atoms ...
  217 atoms

pair_style meam/c
pair_coeff * * library.meam Li Si LiSi.meam Li Si
Reading potential file library.meam with DATE: 2012-06-29
Reading potential file LiSi.meam with DATE: 2020-11-07

group Li type 1
1 atoms in group Li

velocity all create 1800 3320 dist gaussian

# ---------- 2. Describe computed properties----------
compute msdli Li msd
thermo_style custom step pe ke etotal temp press density c_msdli[4]
thermo 100

# ---------- 3. Specify ensemble  ----------
#fix 1 all nve
fix 1 all nvt temp 1800 1800 0.1208232559642938
#fix 1 all npt temp 1800 1800 0.1208232559642938 tchain 2 iso 1.0 1.0 1.0 pchain 2

# ---------- 4. Run -------------
timestep 0.002416465119285876
run 6208
  update every 1 steps, delay 10 steps, check yes
Step PotEng KinEng TotEng Temp Press Density c_msdli[4]
0   -951.06911    50.256344   -900.81276         1800    -114182.3    1.8918427            0
Averages over the last 32 of 64 rows, steps 3200 to 6208:
PotEng KinEng TotEng Temp Press Density c_msdli[4]
-902.707 50.218 -852.489 1798.63 -65937 1.89184 0.585065
Loop time of 3.488 on 1 procs for 6208 steps with 217 atoms
