LAMMPS (3 Mar 2020)

# ---------- 1. Initialize simulation ----------
units metal
atom_style atomic
dimension 3
boundary p p p
read_data /home/modeler/RemLabs/Project/test_equil_nvt_day2/n3_T1600_timestep3.000000e-03_eqsteps3200_time600/20201205-020148/lammps.data
  orthogonal box = (0 0 0) to (17.469 17.469 17.469)
  reading atoms ...
  217 atoms

pair_style meam/c
pair_coeff * * library.meam Li Si LiSi.meam Li Si
Reading potential file library.meam with DATE: 2012-06-29
Reading potential file LiSi.meam with DATE: 2020-11-07

group Li type 1
1 atoms in group Li
group Si type 2
216 atoms in group Si

velocity all create 1600 3320 dist gaussian

# ---------- 2. Specify equilibration ensemble  ----------
# fix 1 all npt temp 1600 1600 0.15 tchain 2 iso 1.0 1.0 1.0 pchain 2
fix 1 all nvt temp 1600 1600 0.15

# ---------- 3. Run equilibration -------------
timestep 0.003
run 3200
  update every 1 steps, delay 10 steps, check yes
Step Temp E_pair E_mol TotEng Press
0         1600   -951.06911            0    -906.3968   -115301.13
Loop time of 1.89596 on 1 procs for 3200 steps with 217 atoms

# ---------- 4. Describe computed properties----------
compute msdli Li msd
compute msdsi Si msd
thermo_style custom step pe ke etotal temp press density c_msdli[4] c_msdsi[4]
thermo 100

# ---------- 3. Run production -------------
timestep 0.003
run 200000
Step PotEng KinEng TotEng Temp Press Density c_msdli[4] c_msdsi[4]
3200   -909.16934    40.842341     -868.327    1462.8245   -74519.786    1.8918427            0            0
Averages over the last 1001 of 2001 rows, steps 103200 to 203200:
PotEng KinEng TotEng Temp Press Density c_msdli[4] c_msdsi[4]
-907.871 44.6006 -863.271 1597.43 -72216.1 1.89184 510.002 0.192655
Loop time of 117.703 on 1 procs for 200000 steps with 217 atoms
