LAMMPS (3 Mar 2020)

# ---------- 1. Initialize simulation ----------
units metal
atom_style atomic
dimension 3
boundary p p p
read_data /home/modeler/RemLabs/Project/arrhenius_2/T1700.0/n3_T1700.0_timestep3.000000e-03_eqsteps3200_time300_rseed3323/20201205-072158/lammps.data
  orthogonal box = (0 0 0) to (17.469 17.469 17.469)
  reading atoms ...
  217 atoms

pair_style meam/c
pair_coeff * * library.meam Li Si LiSi.meam Li Si
Reading potential file library.meam with DATE: 2012-06-29
Reading potential file LiSi.meam with DATE: 2020-11-07

group Li type 1
1 atoms in group Li
group Si type 2
216 atoms in group Si

velocity all create 1700.0 3323 dist gaussian

# ---------- 2. Specify equilibration ensemble  ----------
fix 1 all npt temp 1700.0 1700.0 0.15 tchain 2 iso 1.0 1.0 1.0 pchain 2
# fix 1 all nvt temp 1700.0 1700.0 0.15

# ---------- 3. Run equilibration -------------
timestep 0.003
run 3200
  update every 1 steps, delay 10 steps, check yes
Step Temp E_pair E_mol TotEng Press Volume
0         1700   -951.04357            0   -903.57924   -114721.17    5330.9442
Loop time of 2.29778 on 1 procs for 3200 steps with 217 atoms

# ---------- 4. Describe computed properties----------
compute msdli Li msd
compute msdsi Si msd
thermo_style custom step pe ke etotal temp press density c_msdli[4] c_msdsi[4]
thermo 100

# ---------- 3. Run production -------------
timestep 0.003
run 100000
Step PotEng KinEng TotEng Temp Press Density c_msdli[4] c_msdsi[4]
3200   -940.38749    46.006344   -894.38114    1647.7804   -9555.4314    2.1404184            0 4.0023677e-32
Averages over the last 501 of 1001 rows, steps 53200 to 103200:
PotEng KinEng TotEng Temp Press Density c_msdli[4] c_msdsi[4]
-943.756 47.4681 -896.288 1700.14 -48.7948 2.16923 16.8167 0.171319
Loop time of 71.4181 on 1 procs for 100000 steps with 217 atoms
