LAMMPS (3 Mar 2020)

# ---------- 1. Initialize simulation ----------
units metal
atom_style atomic
dimension 3
boundary p p p
read_data /home/modeler/RemLabs/Project/test_equil/n3_T1800_timestep3.000000e-03_eqsteps3200_time30/20201204-095722/lammps.data
  orthogonal box = (0 0 0) to (17.469 17.469 17.469)
  reading atoms ...
  217 atoms

pair_style meam/c
pair_coeff * * library.meam Li Si LiSi.meam Li Si
Reading potential file library.meam with DATE: 2012-06-29
Reading potential file LiSi.meam with DATE: 2020-11-07

group Li type 1
1 atoms in group Li
group Si type 2
216 atoms in group Si

velocity all create 1800 3320 dist gaussian

# ---------- 2. Specify equilibration ensemble  ----------
fix 1 all npt temp 1800 1800 0.15 tchain 2 iso 1.0 1.0 1.0 pchain 2

# ---------- 3. Run equilibration -------------
timestep 0.003
run 3200
  update every 1 steps, delay 10 steps, check yes
Step Temp E_pair E_mol TotEng Press Volume
0         1800   -951.06911            0   -900.81276    -114182.3    5330.9442
Loop time of 2.27018 on 1 procs for 3200 steps with 217 atoms

# ---------- 4. Describe computed properties----------
compute msdli Li msd
compute msdsi Si msd
thermo_style custom step pe ke etotal temp press density c_msdli[4] c_msdsi[4]
thermo 100

# ---------- 3. Run production -------------
timestep 0.003
run 10000
Step PotEng KinEng TotEng Temp Press Density c_msdli[4] c_msdsi[4]
3200    -944.8974    47.822803   -897.07459    1712.8394   -13276.272    2.1368047            0 3.2648079e-32
Averages over the last 51 of 101 rows, steps 8200 to 13200:
PotEng KinEng TotEng Temp Press Density c_msdli[4] c_msdsi[4]
-940.124 50.1954 -889.928 1797.82 26.9278 2.161 1.28934 0.137768
Loop time of 7.0728 on 1 procs for 10000 steps with 217 atoms
