LAMMPS (3 Mar 2020)

    # ---------- Initialize simulation ---------------------
    units metal
    atom_style atomic
    dimension  3
    boundary   p p p
    read_data /home/modeler/RemLabs/Lab4/Problem2A_size_3/temp_1350/lammps.data
  orthogonal box = (0 0 0) to (12.27 12.27 12.27)
  reading atoms ...
  108 atoms

    pair_style eam
    pair_coeff * * /usr/share/lammps-stable/potentials/Ag_u3.eam
Reading potential file /usr/share/lammps-stable/potentials/Ag_u3.eam with DATE: 2007-06-11

    velocity  all create 1350 87287 dist gaussian

    # ---------- Describe computed properties------------------
    compute msdall all msd
    thermo_style custom step pe ke etotal temp press density c_msdall[4]
    thermo 100

    # ---------- Specify ensemble  ---------------------
    #fix  1 all nve
    fix  1 all nvt temp 1350 1350 0.05

    # --------- Compute RDF ---------------
    compute rdfall all rdf 100 1 1
    fix 2 all ave/time 1 2500 2500 c_rdfall[*] file /home/modeler/RemLabs/Lab4/Problem2A_size_3/temp_1350/lammps.rdf mode vector

    # --------- Run -------------
    timestep 0.001
    run 10000
  update every 1 steps, delay 10 steps, check yes
Step PotEng KinEng TotEng Temp Press Density c_msdall[4]
0       -307.8    18.671628   -289.12837         1350    10796.059    10.472245            0
Averages over the last 51 of 101 rows, steps 5000 to 10000:
PotEng KinEng TotEng Temp Press Density c_msdall[4]
-289.207 18.5073 -270.699 1338.12 73566.9 10.4722 0.104689
Loop time of 2.63633 on 1 procs for 10000 steps with 108 atoms
