LAMMPS (3 Mar 2020)

    # ---------- Initialize simulation ---------------------
    units metal
    atom_style atomic
    dimension  3
    boundary   p p p
    read_data /home/modeler/RemLabs/Lab4/Problem2A_size_3/temp_1900/lammps.data
  orthogonal box = (0 0 0) to (12.27 12.27 12.27)
  reading atoms ...
  108 atoms

    pair_style eam
    pair_coeff * * /usr/share/lammps-stable/potentials/Ag_u3.eam
Reading potential file /usr/share/lammps-stable/potentials/Ag_u3.eam with DATE: 2007-06-11

    velocity  all create 1900 87287 dist gaussian

    # ---------- Describe computed properties------------------
    compute msdall all msd
    thermo_style custom step pe ke etotal temp press density c_msdall[4]
    thermo 100

    # ---------- Specify ensemble  ---------------------
    #fix  1 all nve
    fix  1 all nvt temp 1900 1900 0.25

    # --------- Compute RDF ---------------
    compute rdfall all rdf 100 1 1
    fix 2 all ave/time 1 25000 25000 c_rdfall[*] file /home/modeler/RemLabs/Lab4/Problem2A_size_3/temp_1900/lammps.rdf mode vector

    # --------- Run -------------
    timestep 0.005
    run 100000
  update every 1 steps, delay 10 steps, check yes
Step PotEng KinEng TotEng Temp Press Density c_msdall[4]
0       -307.8    26.278587   -281.52141         1900    15194.477    10.472245            0
Averages over the last 501 of 1001 rows, steps 50000 to 100000:
PotEng KinEng TotEng Temp Press Density c_msdall[4]
-281.154 26.1259 -255.028 1888.96 103990 10.4722 0.155675
Loop time of 31.6804 on 1 procs for 100000 steps with 108 atoms
