LAMMPS (3 Mar 2020)

# ---------- 1. Initialize simulation ----------
units metal
atom_style atomic
dimension 3
boundary p p p
read_data /home/modeler/RemLabs/Project/Li_diffusion_constant_T=600/20201201-112010/lammps.data
  orthogonal box = (0 0 0) to (19.2036 19.2036 19.2036)
  reading atoms ...
  217 atoms

pair_style meam/c
pair_coeff * * library.meam Li Si LiSi.meam Li Si
Reading potential file library.meam with DATE: 2012-06-29
Reading potential file LiSi.meam with DATE: 2020-11-07

velocity all create 600 3320 dist gaussian

# ---------- 2. Describe computed properties----------
compute msdall all msd
thermo_style custom step pe ke etotal temp press density c_msdall[4]
thermo 100

# ---------- 3. Specify ensemble  ----------
#fix  1 all nvt temp 600 600 0.25
fix 1 all npt temp 600 600 0.25 tchain 2 iso 1.0 1.0 1.0 pchain 2

# ---------- 4. Run -------------
timestep 0.005
run 1000
  update every 1 steps, delay 10 steps, check yes
Step PotEng KinEng TotEng Temp Press Density c_msdall[4]
0   -787.25731    16.752115    -770.5052          600   -153071.24    1.4241024            0
Averages over the last 6 of 11 rows, steps 500 to 1000:
PotEng KinEng TotEng Temp Press Density c_msdall[4]
-971.814 20.9926 -950.821 751.88 -17130.9 2.1976 1.66257
Loop time of 0.771769 on 1 procs for 1000 steps with 217 atoms
