LAMMPS (3 Mar 2020)

# ---------- 1. Initialize simulation ----------
units metal
atom_style atomic
dimension 3
boundary p p p
read_data /home/modeler/RemLabs/Project/eval_timestep/n3_T1800_timestep3.475964e-03_steps4316/20201204-074419/lammps.data
  orthogonal box = (0 0 0) to (17.469 17.469 17.469)
  reading atoms ...
  217 atoms

pair_style meam/c
pair_coeff * * library.meam Li Si LiSi.meam Li Si
Reading potential file library.meam with DATE: 2012-06-29
Reading potential file LiSi.meam with DATE: 2020-11-07

group Li type 1
1 atoms in group Li

velocity all create 1800 3320 dist gaussian

# ---------- 2. Describe computed properties----------
compute msdli Li msd
thermo_style custom step pe ke etotal temp press density c_msdli[4]
thermo 100

# ---------- 3. Specify ensemble  ----------
#fix 1 all nve
fix 1 all nvt temp 1800 1800 0.17379819904439012
#fix 1 all npt temp 1800 1800 0.17379819904439012 tchain 2 iso 1.0 1.0 1.0 pchain 2

# ---------- 4. Run -------------
timestep 0.0034759639808878023
run 4316
  update every 1 steps, delay 10 steps, check yes
Step PotEng KinEng TotEng Temp Press Density c_msdli[4]
0   -951.06911    50.256344   -900.81276         1800    -114182.3    1.8918427            0
Averages over the last 23 of 45 rows, steps 2200 to 4316:
PotEng KinEng TotEng Temp Press Density c_msdli[4]
-902.556 49.4211 -853.135 1770.09 -67086.7 1.89184 68.1622
Loop time of 2.45943 on 1 procs for 4316 steps with 217 atoms
