LAMMPS (3 Mar 2020)

    # ---------- Initialize simulation ---------------------
    units metal
    atom_style atomic
    dimension  3
    boundary   p p p
    read_data /home/modeler/RemLabs/Lab4/ProblemEC1_v4_size_3/temp_1238/lammps.data
  orthogonal box = (0 0 0) to (12.27 12.27 12.27)
  reading atoms ...
  108 atoms

    pair_style eam
    pair_coeff * * /usr/share/lammps-stable/potentials/Ag_u3.eam
Reading potential file /usr/share/lammps-stable/potentials/Ag_u3.eam with DATE: 2007-06-11

    velocity  all create 1238 87287 dist gaussian

    # ---------- Describe computed properties------------------
    compute msdall all msd
    thermo_style custom step pe ke etotal temp press density c_msdall[4]
    thermo 100

    # ---------- Specify ensemble  ---------------------
    #fix  1 all nve
    #fix  1 all nvt temp 1238 1238 0.25
    fix 1 all npt temp 1238 1238 0.25 tchain 2 iso 1.0 1.0 1.0 pchain 2

    # --------- Compute RDF ---------------
    compute rdfall all rdf 100 1 1
    fix 2 all ave/time 1 125000 125000 c_rdfall[*] file /home/modeler/RemLabs/Lab4/ProblemEC1_v4_size_3/temp_1238/lammps.rdf mode vector

    # --------- Run -------------
    timestep 0.005
    run 500000
  update every 1 steps, delay 10 steps, check yes
Step PotEng KinEng TotEng Temp Press Density c_msdall[4]
0       -307.8    17.122574   -290.67743         1238    9900.3813    10.472245            0
Averages over the last 2501 of 5001 rows, steps 250000 to 500000:
PotEng KinEng TotEng Temp Press Density c_msdall[4]
-286.21 17.0906 -269.12 1235.69 -147.937 9.53694 0.195166
Loop time of 150.228 on 1 procs for 500000 steps with 108 atoms
