LAMMPS (3 Mar 2020)

    # ---------- Initialize simulation ---------------------
    units metal
    atom_style atomic
    dimension  3
    boundary   p p p
    read_data /home/modeler/RemLabs/Lab4/Problem2A_size_7/temp_750/lammps.data
  orthogonal box = (0 0 0) to (28.63 28.63 28.63)
  reading atoms ...
  1372 atoms

    pair_style eam
    pair_coeff * * /usr/share/lammps-stable/potentials/Ag_u3.eam
Reading potential file /usr/share/lammps-stable/potentials/Ag_u3.eam with DATE: 2007-06-11

    velocity  all create 750 87287 dist gaussian

    # ---------- Describe computed properties------------------
    compute msdall all msd
    thermo_style custom step pe ke etotal temp press density c_msdall[4]
    thermo 100

    # ---------- Specify ensemble  ---------------------
    #fix  1 all nve
    fix  1 all nvt temp 750 750 0.05

    # --------- Compute RDF ---------------
    compute rdfall all rdf 100 1 1
    fix 2 all ave/time 1 2500 2500 c_rdfall[*] file /home/modeler/RemLabs/Lab4/Problem2A_size_7/temp_750/lammps.rdf mode vector

    # --------- Run -------------
    timestep 0.001
    run 10000
  update every 1 steps, delay 10 steps, check yes
Step PotEng KinEng TotEng Temp Press Density c_msdall[4]
0      -3910.2    132.91174   -3777.2883          750     6049.427    10.472245            0
Averages over the last 51 of 101 rows, steps 5000 to 10000:
PotEng KinEng TotEng Temp Press Density c_msdall[4]
-3777.99 133.093 -3644.9 751.022 42167.4 10.4722 0.0616978
Loop time of 24.8846 on 1 procs for 10000 steps with 1372 atoms
