LAMMPS (3 Mar 2020)

    # ---------- Initialize simulation ---------------------
    units metal
    atom_style atomic
    dimension  3
    boundary   p p p
    read_data /home/modeler/RemLabs/Lab4/Problem1/size_3/lammps.data
  orthogonal box = (0 0 0) to (12.3 12.3 12.3)
  reading atoms ...
  108 atoms

    pair_style eam
    pair_coeff * * /usr/share/lammps-stable/potentials/Ag_u3.eam
Reading potential file /usr/share/lammps-stable/potentials/Ag_u3.eam with DATE: 2007-06-11

    velocity  all create 300 87287 dist gaussian

    # ---------- Describe computed properties------------------
    compute msdall all msd
    thermo_style custom step pe ke etotal temp press density c_msdall[4]
    thermo 100

    # ---------- Specify ensemble  ---------------------
    fix  1 all nve
    #fix  1 all nvt temp 300 300 0.05

    # --------- Compute RDF ---------------
    compute rdfall all rdf 100 1 1
    fix 2 all ave/time 1 250 250 c_rdfall[*] file /home/modeler/RemLabs/Lab4/Problem1/size_3/lammps.rdf mode vector

    # --------- Run -------------
    timestep 0.001
    run 1000
  update every 1 steps, delay 10 steps, check yes
Step PotEng KinEng TotEng Temp Press Density c_msdall[4]
0   -307.76813    4.1492507   -303.61888          300   -5083.4882    10.395806            0
Averages over the last 6 of 11 rows, steps 500 to 1000:
PotEng KinEng TotEng Temp Press Density c_msdall[4]
-305.636 2.01709 -303.619 145.84 1461.38 10.3958 0.0102362
Loop time of 0.192278 on 1 procs for 1000 steps with 108 atoms
