LAMMPS (3 Mar 2020)

# ---------- 1. Initialize simulation ----------
units metal
atom_style atomic
dimension 3
boundary p p p
read_data /home/modeler/RemLabs/Project/arrhenius_2/T1650.0/n3_T1650.0_timestep3.000000e-03_eqsteps3200_time300_rseed3324/20201205-071704/lammps.data
  orthogonal box = (0 0 0) to (17.469 17.469 17.469)
  reading atoms ...
  217 atoms

pair_style meam/c
pair_coeff * * library.meam Li Si LiSi.meam Li Si
Reading potential file library.meam with DATE: 2012-06-29
Reading potential file LiSi.meam with DATE: 2020-11-07

group Li type 1
1 atoms in group Li
group Si type 2
216 atoms in group Si

velocity all create 1650.0 3324 dist gaussian

# ---------- 2. Specify equilibration ensemble  ----------
fix 1 all npt temp 1650.0 1650.0 0.15 tchain 2 iso 1.0 1.0 1.0 pchain 2
# fix 1 all nvt temp 1650.0 1650.0 0.15

# ---------- 3. Run equilibration -------------
timestep 0.003
run 3200
  update every 1 steps, delay 10 steps, check yes
Step Temp E_pair E_mol TotEng Press Volume
0         1650   -951.04357            0   -904.97525   -115000.87    5330.9442
Loop time of 2.30183 on 1 procs for 3200 steps with 217 atoms

# ---------- 4. Describe computed properties----------
compute msdli Li msd
compute msdsi Si msd
thermo_style custom step pe ke etotal temp press density c_msdli[4] c_msdsi[4]
thermo 100

# ---------- 3. Run production -------------
timestep 0.003
run 100000
Step PotEng KinEng TotEng Temp Press Density c_msdli[4] c_msdsi[4]
3200   -947.11932    48.820703   -898.29862    1748.5805    4607.5082    2.1832144            0 5.9183114e-32
Averages over the last 501 of 1001 rows, steps 53200 to 103200:
PotEng KinEng TotEng Temp Press Density c_msdli[4] c_msdsi[4]
-945.678 46.0016 -899.677 1647.61 -9.59791 2.17413 116.116 0.129093
Loop time of 70.955 on 1 procs for 100000 steps with 217 atoms
