LAMMPS (3 Mar 2020)

    # ---------- Initialize simulation ---------------------
    units metal
    atom_style atomic
    dimension  3
    boundary   p p p
    read_data /home/modeler/RemLabs/Lab4/lammps.data
  orthogonal box = (0 0 0) to (8.18 8.18 8.18)
  reading atoms ...
  32 atoms

    pair_style eam
    pair_coeff * * /home/modeler/labutil/lab4_samples/Ag_u3.eam
Reading potential file /home/modeler/labutil/lab4_samples/Ag_u3.eam with DATE: 2007-06-11

    velocity  all create 300 12345 dist gaussian

    # ---------- Describe computed properties------------------
    compute msdall all msd
    thermo_style custom step pe ke etotal temp press density c_msdall[4]
    thermo 100

    # ---------- Specify ensemble  ---------------------
    fix  1 all nve
    # fix  1 all nvt temp 300 300 0.05
    # fix  1 all npt temp 300 300 0.05 tchain 2 iso 1.0 1.0 1.0 pchain 2

    # --------- Compute RDF ---------------
    compute rdfall all rdf 100 1 1
    fix 2 all ave/time 1 250 250 c_rdfall[*] file /home/modeler/RemLabs/Lab4/lammps.rdf mode vector

    # --------- Run -------------
    timestep 0.001
    run 10000
  update every 1 steps, delay 10 steps, check yes
Step PotEng KinEng TotEng Temp Press Density c_msdall[4]
0        -91.2    1.2021193   -89.997881          300    2345.8272    10.472245            0
Averages over the last 51 of 101 rows, steps 5000 to 10000:
PotEng KinEng TotEng Temp Press Density c_msdall[4]
-90.5934 0.595612 -89.9978 148.641 8610.61 10.4722 0.00817074
Loop time of 0.64225 on 1 procs for 10000 steps with 32 atoms
