LAMMPS (3 Mar 2020)

# ---------- 1. Initialize simulation ----------
units metal
atom_style atomic
dimension 3
boundary p p p
read_data /home/modeler/RemLabs/Project/arrhenius_4/T1800.0/n3_T1800.0_timestep3.000000e-03_eqsteps3200_time600_rseed3331/20201205-150516/lammps.data
  orthogonal box = (0 0 0) to (17.469 17.469 17.469)
  reading atoms ...
  217 atoms

pair_style meam/c
pair_coeff * * library.meam Li Si LiSi.meam Li Si
Reading potential file library.meam with DATE: 2012-06-29
Reading potential file LiSi.meam with DATE: 2020-11-07

group Li type 1
1 atoms in group Li
group Si type 2
216 atoms in group Si

velocity all create 1800.0 3331 dist gaussian

# ---------- 2. Specify equilibration ensemble  ----------
fix 1 all npt temp 1800.0 1800.0 0.15 tchain 2 iso 1.0 1.0 1.0 pchain 2
# fix 1 all nvt temp 1800.0 1800.0 0.15

# ---------- 3. Run equilibration -------------
timestep 0.003
run 3200
  update every 1 steps, delay 10 steps, check yes
Step Temp E_pair E_mol TotEng Press Volume
0         1800   -951.04357            0   -900.78722   -114161.75    5330.9442
Loop time of 2.25642 on 1 procs for 3200 steps with 217 atoms

# ---------- 4. Describe computed properties----------
compute msdli Li msd
compute msdsi Si msd
thermo_style custom step pe ke etotal temp press density c_msdli[4] c_msdsi[4]
thermo 100

# ---------- 3. Run production -------------
timestep 0.003
run 200000
Step PotEng KinEng TotEng Temp Press Density c_msdli[4] c_msdsi[4]
3200   -941.49565    51.180083   -890.31557     1833.085    565.89007     2.166472            0 5.1172672e-32
Averages over the last 1001 of 2001 rows, steps 103200 to 203200:
PotEng KinEng TotEng Temp Press Density c_msdli[4] c_msdsi[4]
-939.899 50.1701 -889.729 1796.91 72.3563 2.15981 81.2551 0.177331
Loop time of 141.304 on 1 procs for 200000 steps with 217 atoms
