LAMMPS (3 Mar 2020)

    # ---------- Initialize simulation ---------------------
    units metal
    atom_style atomic
    dimension  3
    boundary   p p p
    read_data /home/modeler/RemLabs/Lab4/Problem1A/timestep_0.0021147425268811283/lammps.data
  orthogonal box = (0 0 0) to (12.27 12.27 12.27)
  reading atoms ...
  108 atoms

    pair_style eam
    pair_coeff * * /usr/share/lammps-stable/potentials/Ag_u3.eam
Reading potential file /usr/share/lammps-stable/potentials/Ag_u3.eam with DATE: 2007-06-11

    velocity  all create 300 87287 dist gaussian

    # ---------- Describe computed properties------------------
    compute msdall all msd
    thermo_style custom step pe ke etotal temp press density c_msdall[4]
    thermo 100

    # ---------- Specify ensemble  ---------------------
    fix  1 all nve
    #fix  1 all nvt temp 300 300 0.10573712634405641

    # --------- Compute RDF ---------------
    compute rdfall all rdf 100 1 1
    fix 2 all ave/time 1 1182 1182 c_rdfall[*] file /home/modeler/RemLabs/Lab4/Problem1A/timestep_0.0021147425268811283/lammps.rdf mode vector

    # --------- Run -------------
    timestep 0.0021147425268811283
    run 4729
  update every 1 steps, delay 10 steps, check yes
Step PotEng KinEng TotEng Temp Press Density c_msdall[4]
0       -307.8    4.1492507   -303.65075          300     2399.079    10.472245            0
Averages over the last 25 of 49 rows, steps 2400 to 4729:
PotEng KinEng TotEng Temp Press Density c_msdall[4]
-305.729 2.07949 -303.65 150.352 8614.26 10.4722 0.00966496
Loop time of 0.933899 on 1 procs for 4729 steps with 108 atoms
