LAMMPS (3 Mar 2020)

# ---------- 1. Initialize simulation ----------
units metal
atom_style atomic
dimension 3
boundary p p p
read_data /home/modeler/RemLabs/Project/test_equil_npt_then_nvt_day2/n3_T1600_timestep3.000000e-03_eqsteps3200_time60/20201205-015631/lammps.data
  orthogonal box = (0 0 0) to (17.469 17.469 17.469)
  reading atoms ...
  217 atoms

pair_style meam/c
pair_coeff * * library.meam Li Si LiSi.meam Li Si
Reading potential file library.meam with DATE: 2012-06-29
Reading potential file LiSi.meam with DATE: 2020-11-07

group Li type 1
1 atoms in group Li
group Si type 2
216 atoms in group Si

velocity all create 1600 3320 dist gaussian

# ---------- 2. Specify equilibration ensemble  ----------
fix 1 all npt temp 1600 1600 0.15 tchain 2 iso 1.0 1.0 1.0 pchain 2
# fix 1 all nvt temp 1600 1600 0.15

# ---------- 3. Run equilibration -------------
timestep 0.003
run 3200
  update every 1 steps, delay 10 steps, check yes
Step Temp E_pair E_mol TotEng Press Volume
0         1600   -951.06911            0    -906.3968   -115301.13    5330.9442
Loop time of 2.42624 on 1 procs for 3200 steps with 217 atoms

# ---------- 4. Specify production ensemble ----------
unfix 1
fix 2 all nvt temp 1600 1600 0.15

# ---------- 4. Describe computed properties----------
compute msdli Li msd
compute msdsi Si msd
thermo_style custom step pe ke etotal temp press density c_msdli[4] c_msdsi[4]
thermo 100

# ---------- 3. Run production -------------
timestep 0.003
run 20000
Step PotEng KinEng TotEng Temp Press Density c_msdli[4] c_msdsi[4]
3200   -951.82264    45.573771   -906.24887    1632.2872   -1888.7705    2.1838599            0 7.084569e-32
Averages over the last 101 of 201 rows, steps 13200 to 23200:
PotEng KinEng TotEng Temp Press Density c_msdli[4] c_msdsi[4]
-947.914 44.1653 -903.749 1581.84 1103.83 2.18386 1.85129 0.120819
Loop time of 14.7316 on 1 procs for 20000 steps with 217 atoms
