LAMMPS (3 Mar 2020)

    # ---------- Initialize simulation ---------------------
    units metal
    atom_style atomic
    dimension  3
    boundary   p p p
    read_data /home/modeler/RemLabs/Lab4/ProblemEC1_v2_size_4/temp_1270/lammps.data
  orthogonal box = (0 0 0) to (16.36 16.36 16.36)
  reading atoms ...
  256 atoms

    pair_style eam
    pair_coeff * * /usr/share/lammps-stable/potentials/Ag_u3.eam
Reading potential file /usr/share/lammps-stable/potentials/Ag_u3.eam with DATE: 2007-06-11

    velocity  all create 1270 87287 dist gaussian

    # ---------- Describe computed properties------------------
    compute msdall all msd
    thermo_style custom step pe ke etotal temp press density c_msdall[4]
    thermo 100

    # ---------- Specify ensemble  ---------------------
    #fix  1 all nve
    #fix  1 all nvt temp 1270 1270 0.25
    fix 1 all npt temp 1270 1270 0.25 tchain 2 iso 1.0 1.0 1.0 pchain 2

    # --------- Compute RDF ---------------
    compute rdfall all rdf 100 1 1
    fix 2 all ave/time 1 125000 125000 c_rdfall[*] file /home/modeler/RemLabs/Lab4/ProblemEC1_v2_size_4/temp_1270/lammps.rdf mode vector

    # --------- Run -------------
    timestep 0.005
    run 500000
  update every 1 steps, delay 10 steps, check yes
Step PotEng KinEng TotEng Temp Press Density c_msdall[4]
0       -729.6    41.860898    -687.7391         1270    10211.164    10.472245            0
Averages over the last 2501 of 5001 rows, steps 250000 to 500000:
PotEng KinEng TotEng Temp Press Density c_msdall[4]
-676.15 41.873 -634.277 1270.37 32.5913 9.49487 0.255786
Loop time of 349.6 on 1 procs for 500000 steps with 256 atoms
