LAMMPS (3 Mar 2020)

# ---------- 1. Initialize simulation ----------
units metal
atom_style atomic
dimension 3
boundary p p p
read_data /home/modeler/RemLabs/Project/eval_timestep/n3_T1300_timestep2.236068e-03_steps2237/20201204-073538/lammps.data
  orthogonal box = (0 0 0) to (17.469 17.469 17.469)
  reading atoms ...
  217 atoms

pair_style meam/c
pair_coeff * * library.meam Li Si LiSi.meam Li Si
Reading potential file library.meam with DATE: 2012-06-29
Reading potential file LiSi.meam with DATE: 2020-11-07

group Li type 1
1 atoms in group Li

velocity all create 1300 3320 dist gaussian

# ---------- 2. Describe computed properties----------
compute msdli Li msd
thermo_style custom step pe ke etotal temp press density c_msdli[4]
thermo 100

# ---------- 3. Specify ensemble  ----------
#fix 1 all nve
fix 1 all nvt temp 1300 1300 0.11180339887498947
#fix 1 all npt temp 1300 1300 0.11180339887498947 tchain 2 iso 1.0 1.0 1.0 pchain 2

# ---------- 4. Run -------------
timestep 0.0022360679774997894
run 2237
  update every 1 steps, delay 10 steps, check yes
Step PotEng KinEng TotEng Temp Press Density c_msdli[4]
0   -951.06911    36.296249   -914.77286         1300   -116979.37    1.8918427            0
Averages over the last 12 of 24 rows, steps 1200 to 2237:
PotEng KinEng TotEng Temp Press Density c_msdli[4]
-916.829 36.8143 -880.014 1318.56 -81488.4 1.89184 0.112143
Loop time of 1.20473 on 1 procs for 2237 steps with 217 atoms
