LAMMPS (3 Mar 2020)

    # ---------- Initialize simulation ---------------------
    units metal
    atom_style atomic
    dimension  3
    boundary   p p p
    read_data /home/modeler/RemLabs/Lab4/Problem1A/timestep_0.008497812409839359/lammps.data
  orthogonal box = (0 0 0) to (12.27 12.27 12.27)
  reading atoms ...
  108 atoms

    pair_style eam
    pair_coeff * * /usr/share/lammps-stable/potentials/Ag_u3.eam
Reading potential file /usr/share/lammps-stable/potentials/Ag_u3.eam with DATE: 2007-06-11

    velocity  all create 300 87287 dist gaussian

    # ---------- Describe computed properties------------------
    compute msdall all msd
    thermo_style custom step pe ke etotal temp press density c_msdall[4]
    thermo 100

    # ---------- Specify ensemble  ---------------------
    fix  1 all nve
    #fix  1 all nvt temp 300 300 0.42489062049196796

    # --------- Compute RDF ---------------
    compute rdfall all rdf 100 1 1
    fix 2 all ave/time 1 294 294 c_rdfall[*] file /home/modeler/RemLabs/Lab4/Problem1A/timestep_0.008497812409839359/lammps.rdf mode vector

    # --------- Run -------------
    timestep 0.008497812409839359
    run 1177
  update every 1 steps, delay 10 steps, check yes
Step PotEng KinEng TotEng Temp Press Density c_msdall[4]
0       -307.8    4.1492507   -303.65075          300     2399.079    10.472245            0
Averages over the last 7 of 13 rows, steps 600 to 1177:
PotEng KinEng TotEng Temp Press Density c_msdall[4]
-305.701 2.07088 -303.631 149.729 8706.89 10.4722 0.00950379
Loop time of 0.22673 on 1 procs for 1177 steps with 108 atoms
