LAMMPS (3 Mar 2020)

    # ---------- Initialize simulation ---------------------
    units metal
    atom_style atomic
    dimension  3
    boundary   p p p
    read_data /home/modeler/RemLabs/Lab4/Problem2A_v1_size_5/temp_2200/lammps.data
  orthogonal box = (0 0 0) to (20.45 20.45 20.45)
  reading atoms ...
  500 atoms

    pair_style eam
    pair_coeff * * /usr/share/lammps-stable/potentials/Ag_u3.eam
Reading potential file /usr/share/lammps-stable/potentials/Ag_u3.eam with DATE: 2007-06-11

    velocity  all create 2200 87287 dist gaussian

    # ---------- Describe computed properties------------------
    compute msdall all msd
    thermo_style custom step pe ke etotal temp press density c_msdall[4]
    thermo 100

    # ---------- Specify ensemble  ---------------------
    #fix  1 all nve
    fix  1 all nvt temp 2200 2200 0.25

    # --------- Compute RDF ---------------
    compute rdfall all rdf 100 1 1
    fix 2 all ave/time 1 125000 125000 c_rdfall[*] file /home/modeler/RemLabs/Lab4/Problem2A_v1_size_5/temp_2200/lammps.rdf mode vector

    # --------- Run -------------
    timestep 0.005
    run 500000
  update every 1 steps, delay 10 steps, check yes
Step PotEng KinEng TotEng Temp Press Density c_msdall[4]
0        -1425    141.90179   -1283.0982         2200    17722.525    10.472245            0
Averages over the last 2501 of 5001 rows, steps 250000 to 500000:
PotEng KinEng TotEng Temp Press Density c_msdall[4]
-1279.29 141.953 -1137.34 2200.79 121690 10.4722 1.05856
Loop time of 741.464 on 1 procs for 500000 steps with 500 atoms
