LAMMPS (3 Mar 2020)

# ---------- 1. Initialize simulation ----------
units metal
atom_style atomic
dimension 3
boundary p p p
read_data /home/modeler/RemLabs/Project/arrhenius_3_test/T1550.0/n3_T1550.0_timestep3.000000e-03_eqsteps3200_time30_rseed3320/20201205-080746/lammps.data
  orthogonal box = (0 0 0) to (17.469 17.469 17.469)
  reading atoms ...
  217 atoms

pair_style meam/c
pair_coeff * * library.meam Li Si LiSi.meam Li Si
Reading potential file library.meam with DATE: 2012-06-29
Reading potential file LiSi.meam with DATE: 2020-11-07

group Li type 1
1 atoms in group Li
group Si type 2
216 atoms in group Si

velocity all create 1550.0 3320 dist gaussian

# ---------- 2. Specify equilibration ensemble  ----------
fix 1 all npt temp 1550.0 1550.0 0.15 tchain 2 iso 1.0 1.0 1.0 pchain 2
# fix 1 all nvt temp 1550.0 1550.0 0.15

# ---------- 3. Run equilibration -------------
timestep 0.003
run 3200
  update every 1 steps, delay 10 steps, check yes
Step Temp E_pair E_mol TotEng Press Volume
0         1550   -951.04357            0   -907.76727   -115560.29    5330.9442
Loop time of 2.28228 on 1 procs for 3200 steps with 217 atoms

# ---------- 4. Describe computed properties----------
compute msdli Li msd
compute msdsi Si msd
thermo_style custom step pe ke etotal temp press density c_msdli[4] c_msdsi[4]
thermo 100

# ---------- 3. Run production -------------
timestep 0.003
run 10000
Step PotEng KinEng TotEng Temp Press Density c_msdli[4] c_msdsi[4]
3200   -947.06416    38.612471   -908.45169    1382.9587   -7560.3322    2.1554153            0 1.410922e-32
Averages over the last 51 of 101 rows, steps 8200 to 13200:
PotEng KinEng TotEng Temp Press Density c_msdli[4] c_msdsi[4]
-949.283 43.65 -905.633 1563.38 70.3537 2.18346 0.134639 0.103056
Loop time of 7.07431 on 1 procs for 10000 steps with 217 atoms
